1--13


 38 41  0  0  0  0  0  0  0  0999 V2000
    1.3344   37.2906   22.3724 C   0  0  0  0  0  0  0  0  0  0  0  0
    1.0936   36.9084   21.0302 C   0  0  0  0  0  0  0  0  0  0  0  0
    2.2048   36.7169   20.1788 C   0  0  0  0  0  0  0  0  0  0  0  0
    3.4932   36.8915   20.6747 C   0  0  0  0  0  0  0  0  0  0  0  0
    3.7235   37.2242   22.0109 C   0  0  0  0  0  0  0  0  0  0  0  0
    2.6421   37.4244   22.8555 C   0  0  0  0  0  0  0  0  0  0  0  0
    0.5311   38.0552   24.4717 C   0  0  0  0  0  0  0  0  0  0  0  0
    0.2565   37.4775   23.2005 O   0  0  0  0  0  0  0  0  0  0  0  0
    2.2032   36.4994   18.8220 O   0  0  0  0  0  0  0  0  0  0  0  0
    2.1673   37.6086   17.9339 C   0  0  0  0  0  0  0  0  0  0  0  0
    4.9682   37.3814   22.5798 O   0  0  0  0  0  0  0  0  0  0  0  0
    5.7261   36.1742   22.5664 C   0  0  0  0  0  0  0  0  0  0  0  0
    6.9593   36.1488   23.4323 C   0  0  0  0  0  0  0  0  0  0  0  0
    8.1478   36.7970   22.9572 C   0  0  0  0  0  0  0  0  0  0  0  0
    9.3150   36.8252   23.7747 C   0  0  0  0  0  0  0  0  0  0  0  0
    9.2441   36.1396   25.0071 C   0  0  0  0  0  0  0  0  0  0  0  0
    8.0953   35.4729   25.4380 C   0  0  0  0  0  0  0  0  0  0  0  0
    6.9539   35.4870   24.6589 C   0  0  0  0  0  0  0  0  0  0  0  0
    8.1490   37.3930   21.5595 C   0  0  0  0  0  0  0  0  0  0  0  0
   10.5942   37.5014   23.4033 C   0  0  0  0  0  0  0  0  0  0  0  0
   10.7567   38.9003   23.4129 C   0  0  0  0  0  0  0  0  0  0  0  0
   11.9605   39.5139   23.0416 C   0  0  0  0  0  0  0  0  0  0  0  0
   13.0644   38.7376   22.7196 C   0  0  0  0  0  0  0  0  0  0  0  0
   12.9607   37.3528   22.7541 C   0  0  0  0  0  0  0  0  0  0  0  0
   11.7374   36.7494   23.0699 C   0  0  0  0  0  0  0  0  0  0  0  0
   -0.2695   36.7242   20.4281 C   0  0  0  0  0  0  0  0  0  0  0  0
   -0.4727   35.6626   19.4611 N   0  0  0  0  0  0  0  0  0  0  0  0
   -1.0068   34.9129   19.8886 H   0  0  0  0  0  0  0  0  0  0  0  0
   -1.1573   36.2239   18.2993 C   0  0  0  0  0  0  0  0  0  0  0  0
   -1.3572   35.1486   17.2339 C   0  0  0  0  0  0  0  0  0  0  0  0
   -0.6265   35.4645   15.9958 N   0  0  0  0  0  0  0  0  0  0  0  0
    0.6797   34.7643   15.9056 C   0  0  0  0  0  0  0  0  0  0  0  0
    0.5535   33.2527   15.7005 C   0  0  0  0  0  0  0  0  0  0  0  0
   -0.4126   32.8389   14.8167 N   0  0  0  0  0  0  0  0  0  0  0  0
   -1.6042   33.6263   14.5632 C   0  0  0  0  0  0  0  0  0  0  0  0
   -1.4341   35.1305   14.8045 C   0  0  0  0  0  0  0  0  0  0  0  0
    1.3280   32.4430   16.2025 O   0  0  0  0  0  0  0  0  0  0  0  0
   -0.4674   31.8314   14.7314 H   0  0  0  0  0  0  0  0  0  0  0  0
  1  2  2  0  0  0
  1  6  1  0  0  0
  2  3  1  0  0  0
  2 26  1  0  0  0
  3  4  2  0  0  0
  3  9  1  0  0  0
  4  5  1  0  0  0
  5  6  2  0  0  0
  5 11  1  0  0  0
  7  8  1  0  0  0
  8  1  1  0  0  0
  9 10  1  0  0  0
 11 12  1  0  0  0
 12 13  1  0  0  0
 13 14  2  0  0  0
 13 18  1  0  0  0
 14 15  1  0  0  0
 14 19  1  0  0  0
 15 16  2  0  0  0
 15 20  1  0  0  0
 16 17  1  0  0  0
 17 18  2  0  0  0
 20 21  2  0  0  0
 20 25  1  0  0  0
 21 22  1  0  0  0
 22 23  2  0  0  0
 23 24  1  0  0  0
 24 25  2  0  0  0
 26 27  1  0  0  0
 27 29  1  0  0  0
 27 28  1  0  0  0
 29 30  1  0  0  0
 30 31  1  0  0  0
 31 32  1  0  0  0
 31 36  1  0  0  0
 32 33  1  0  0  0
 33 34  1  0  0  0
 33 37  2  0  0  0
 34 35  1  0  0  0
 34 38  1  0  0  0
 35 36  1  0  0  0
M  END
> <minimizedAffinity>
-11.30618

$$$$
