1--11


 37 40  0  0  0  0  0  0  0  0999 V2000
    3.8852   37.1007   22.0617 C   0  0  0  0  0  0  0  0  0  0  0  0
    5.1852   36.7794   22.5114 C   0  0  0  0  0  0  0  0  0  0  0  0
    5.3556   36.3205   23.8349 C   0  0  0  0  0  0  0  0  0  0  0  0
    4.2509   36.2149   24.6814 C   0  0  0  0  0  0  0  0  0  0  0  0
    2.9737   36.5456   24.2329 C   0  0  0  0  0  0  0  0  0  0  0  0
    2.7879   36.9494   22.9150 C   0  0  0  0  0  0  0  0  0  0  0  0
    2.7182   36.9224   20.0125 C   0  0  0  0  0  0  0  0  0  0  0  0
    3.7624   37.5360   20.7631 O   0  0  0  0  0  0  0  0  0  0  0  0
    6.6366   36.0275   24.2268 O   0  0  0  0  0  0  0  0  0  0  0  0
    6.8366   34.9457   25.1266 C   0  0  0  0  0  0  0  0  0  0  0  0
    1.8395   36.5110   25.0033 O   0  0  0  0  0  0  0  0  0  0  0  0
    1.0896   37.7275   24.9909 C   0  0  0  0  0  0  0  0  0  0  0  0
    1.1012   38.4580   26.3175 C   0  0  0  0  0  0  0  0  0  0  0  0
   -0.1247   38.8904   26.9086 C   0  0  0  0  0  0  0  0  0  0  0  0
   -0.1322   39.4242   28.2306 C   0  0  0  0  0  0  0  0  0  0  0  0
    1.1226   39.6224   28.8502 C   0  0  0  0  0  0  0  0  0  0  0  0
    2.3233   39.2866   28.2255 C   0  0  0  0  0  0  0  0  0  0  0  0
    2.3159   38.6901   26.9827 C   0  0  0  0  0  0  0  0  0  0  0  0
   -1.4027   38.7628   26.1024 C   0  0  0  0  0  0  0  0  0  0  0  0
   -1.3721   39.7735   28.9901 C   0  0  0  0  0  0  0  0  0  0  0  0
   -1.6228   41.0729   29.4700 C   0  0  0  0  0  0  0  0  0  0  0  0
   -2.7575   41.3800   30.2285 C   0  0  0  0  0  0  0  0  0  0  0  0
   -3.7217   40.4081   30.4587 C   0  0  0  0  0  0  0  0  0  0  0  0
   -3.5454   39.1328   29.9358 C   0  0  0  0  0  0  0  0  0  0  0  0
   -2.3786   38.8175   29.2287 C   0  0  0  0  0  0  0  0  0  0  0  0
    6.3810   36.9225   21.5893 C   0  0  0  0  0  0  0  0  0  0  0  0
    7.3460   37.9707   21.9667 N   0  0  0  0  0  0  0  0  0  0  0  0
    7.1908   38.1576   22.9570 H   0  0  0  0  0  0  0  0  0  0  0  0
    8.7594   37.5877   21.7881 C   0  0  0  0  0  0  0  0  0  0  0  0
    9.4358   37.1106   23.0770 C   0  0  0  0  0  0  0  0  0  0  0  0
   10.7964   37.5832   23.2853 N   0  0  0  0  0  0  0  0  0  0  0  0
   11.8064   36.6621   23.5544 C   0  0  0  0  0  0  0  0  0  0  0  0
   13.1491   37.0497   22.9660 C   0  0  0  0  0  0  0  0  0  0  0  0
   13.4653   38.5382   22.9880 C   0  0  0  0  0  0  0  0  0  0  0  0
   12.2719   39.3658   22.5279 C   0  0  0  0  0  0  0  0  0  0  0  0
   11.0554   39.0102   23.3591 C   0  0  0  0  0  0  0  0  0  0  0  0
   11.6162   35.5518   24.0316 O   0  0  0  0  0  0  0  0  0  0  0  0
  1  2  2  0  0  0
  1  6  1  0  0  0
  2  3  1  0  0  0
  2 26  1  0  0  0
  3  4  2  0  0  0
  3  9  1  0  0  0
  4  5  1  0  0  0
  5  6  2  0  0  0
  5 11  1  0  0  0
  7  8  1  0  0  0
  8  1  1  0  0  0
  9 10  1  0  0  0
 11 12  1  0  0  0
 12 13  1  0  0  0
 13 14  2  0  0  0
 13 18  1  0  0  0
 14 15  1  0  0  0
 14 19  1  0  0  0
 15 16  2  0  0  0
 15 20  1  0  0  0
 16 17  1  0  0  0
 17 18  2  0  0  0
 20 21  2  0  0  0
 20 25  1  0  0  0
 21 22  1  0  0  0
 22 23  2  0  0  0
 23 24  1  0  0  0
 24 25  2  0  0  0
 26 27  1  0  0  0
 27 29  1  0  0  0
 27 28  1  0  0  0
 29 30  1  0  0  0
 30 31  1  0  0  0
 31 32  1  0  0  0
 31 36  1  0  0  0
 32 33  1  0  0  0
 32 37  2  0  0  0
 33 34  1  0  0  0
 34 35  1  0  0  0
 35 36  1  0  0  0
M  END
> <minimizedAffinity>
-10.50899

$$$$
