1--14


 36 39  0  0  0  0  0  0  0  0999 V2000
    1.0068   37.4433   24.1200 C   0  0  0  0  0  0  0  0  0  0  0  0
    0.7458   37.5630   22.7375 C   0  0  0  0  0  0  0  0  0  0  0  0
    1.7590   37.2346   21.8130 C   0  0  0  0  0  0  0  0  0  0  0  0
    2.9789   36.7496   22.2728 C   0  0  0  0  0  0  0  0  0  0  0  0
    3.2202   36.6194   23.6425 C   0  0  0  0  0  0  0  0  0  0  0  0
    2.2356   36.9489   24.5627 C   0  0  0  0  0  0  0  0  0  0  0  0
    0.4135   38.4646   26.1604 C   0  0  0  0  0  0  0  0  0  0  0  0
   -0.0040   37.7502   24.9977 O   0  0  0  0  0  0  0  0  0  0  0  0
    1.5015   37.4428   20.4807 O   0  0  0  0  0  0  0  0  0  0  0  0
    2.4313   36.9006   19.5476 C   0  0  0  0  0  0  0  0  0  0  0  0
    4.4062   36.1788   24.1728 O   0  0  0  0  0  0  0  0  0  0  0  0
    5.4893   36.3203   23.2513 C   0  0  0  0  0  0  0  0  0  0  0  0
    6.8527   36.2125   23.8887 C   0  0  0  0  0  0  0  0  0  0  0  0
    7.9712   36.8392   23.2656 C   0  0  0  0  0  0  0  0  0  0  0  0
    9.2638   36.7163   23.8476 C   0  0  0  0  0  0  0  0  0  0  0  0
    9.3564   35.9645   25.0430 C   0  0  0  0  0  0  0  0  0  0  0  0
    8.2502   35.3878   25.6669 C   0  0  0  0  0  0  0  0  0  0  0  0
    7.0013   35.5110   25.0906 C   0  0  0  0  0  0  0  0  0  0  0  0
    7.7490   37.6041   21.9730 C   0  0  0  0  0  0  0  0  0  0  0  0
   10.5026   37.3633   23.3160 C   0  0  0  0  0  0  0  0  0  0  0  0
   10.7300   38.7423   23.5038 C   0  0  0  0  0  0  0  0  0  0  0  0
   11.8602   39.3828   22.9868 C   0  0  0  0  0  0  0  0  0  0  0  0
   12.7802   38.6677   22.2312 C   0  0  0  0  0  0  0  0  0  0  0  0
   12.5958   37.3065   22.0358 C   0  0  0  0  0  0  0  0  0  0  0  0
   11.4956   36.6616   22.6078 C   0  0  0  0  0  0  0  0  0  0  0  0
   -0.6354   37.8904   22.2302 C   0  0  0  0  0  0  0  0  0  0  0  0
   -1.3306   36.8037   21.5206 N   0  0  0  0  0  0  0  0  0  0  0  0
   -1.8752   36.2724   22.1986 H   0  0  0  0  0  0  0  0  0  0  0  0
   -2.2332   37.4477   20.5542 C   0  0  0  0  0  0  0  0  0  0  0  0
   -1.6898   38.7354   19.9042 C   0  0  0  0  0  0  0  0  0  0  0  0
   -2.7734   39.7226   19.7203 N   0  0  0  0  0  0  0  0  0  0  0  0
   -3.4620   40.1131   20.9715 C   0  0  0  0  0  0  0  0  0  0  0  0
   -2.6888   41.1187   21.8369 C   0  0  0  0  0  0  0  0  0  0  0  0
   -2.3751   42.2980   21.0891 O   0  0  0  0  0  0  0  0  0  0  0  0
   -1.5917   41.9617   19.9379 C   0  0  0  0  0  0  0  0  0  0  0  0
   -2.3105   40.9450   19.0341 C   0  0  0  0  0  0  0  0  0  0  0  0
  1  2  2  0  0  0
  1  6  1  0  0  0
  2  3  1  0  0  0
  2 26  1  0  0  0
  3  4  2  0  0  0
  3  9  1  0  0  0
  4  5  1  0  0  0
  5  6  2  0  0  0
  5 11  1  0  0  0
  7  8  1  0  0  0
  8  1  1  0  0  0
  9 10  1  0  0  0
 11 12  1  0  0  0
 12 13  1  0  0  0
 13 14  2  0  0  0
 13 18  1  0  0  0
 14 15  1  0  0  0
 14 19  1  0  0  0
 15 16  2  0  0  0
 15 20  1  0  0  0
 16 17  1  0  0  0
 17 18  2  0  0  0
 20 21  2  0  0  0
 20 25  1  0  0  0
 21 22  1  0  0  0
 22 23  2  0  0  0
 23 24  1  0  0  0
 24 25  2  0  0  0
 26 27  1  0  0  0
 27 29  1  0  0  0
 27 28  1  0  0  0
 29 30  1  0  0  0
 30 31  1  0  0  0
 31 32  1  0  0  0
 31 36  1  0  0  0
 32 33  1  0  0  0
 33 34  1  0  0  0
 34 35  1  0  0  0
 35 36  1  0  0  0
M  END
> <minimizedAffinity>
-10.11119

$$$$
