1--1


 36 39  0  0  0  0  0  0  0  0999 V2000
    1.2197   36.6342   16.9460 C   0  0  0  0  0  0  0  0  0  0  0  0
   -0.1503   36.2884   16.9500 C   0  0  0  0  0  0  0  0  0  0  0  0
   -0.8675   36.3918   18.1788 C   0  0  0  0  0  0  0  0  0  0  0  0
   -0.2172   36.7726   19.3553 C   0  0  0  0  0  0  0  0  0  0  0  0
    1.1391   37.0439   19.3443 C   0  0  0  0  0  0  0  0  0  0  0  0
    1.8482   36.9935   18.1469 C   0  0  0  0  0  0  0  0  0  0  0  0
    2.0165   37.8188   15.0401 C   0  0  0  0  0  0  0  0  0  0  0  0
    1.9011   36.5934   15.7541 O   0  0  0  0  0  0  0  0  0  0  0  0
   -2.2137   36.1195   18.1271 O   0  0  0  0  0  0  0  0  0  0  0  0
   -3.0836   37.0132   18.8215 C   0  0  0  0  0  0  0  0  0  0  0  0
   -0.9696   35.9696   15.6933 C   0  0  0  0  0  0  0  0  0  0  0  0
   -1.1606   34.5583   15.2928 N   0  0  0  0  0  0  0  0  0  0  0  0
   -2.5869   34.1145   15.3837 C   0  0  0  0  0  0  0  0  0  0  0  0
   -3.4898   34.5879   14.2366 C   0  0  0  0  0  0  0  0  0  0  0  0
   -2.8876   34.3039   12.8664 C   0  0  0  0  0  0  0  0  0  0  0  0
   -1.4783   34.8699   12.7867 C   0  0  0  0  0  0  0  0  0  0  0  0
   -0.6093   34.3462   13.9326 C   0  0  0  0  0  0  0  0  0  0  0  0
   -2.6014   32.5744   15.5194 C   0  0  0  0  0  0  0  0  0  0  0  0
   -1.6212   31.8590   15.6601 O   0  0  0  0  0  0  0  0  0  0  0  0
   -3.8643   32.0768   15.4142 O   0  0  0  0  0  0  0  0  0  0  0  0
   -4.4533   32.8670   15.3018 H   0  0  0  0  0  0  0  0  0  0  0  0
    1.6837   37.3665   20.5585 O   0  0  0  0  0  0  0  0  0  0  0  0
    3.0747   37.0561   20.6583 C   0  0  0  0  0  0  0  0  0  0  0  0
    3.5177   36.7600   22.0764 C   0  0  0  0  0  0  0  0  0  0  0  0
    4.8804   36.4534   22.3420 C   0  0  0  0  0  0  0  0  0  0  0  0
    5.3288   36.3403   23.6877 C   0  0  0  0  0  0  0  0  0  0  0  0
    4.3526   36.3621   24.7066 C   0  0  0  0  0  0  0  0  0  0  0  0
    2.9996   36.5504   24.4322 C   0  0  0  0  0  0  0  0  0  0  0  0
    2.5900   36.7818   23.1277 C   0  0  0  0  0  0  0  0  0  0  0  0
    5.8336   36.2336   21.1826 C   0  0  0  0  0  0  0  0  0  0  0  0
    6.7648   36.2323   24.0692 C   0  0  0  0  0  0  0  0  0  0  0  0
    7.7761   36.8604   23.3180 C   0  0  0  0  0  0  0  0  0  0  0  0
    9.1276   36.7443   23.6530 C   0  0  0  0  0  0  0  0  0  0  0  0
    9.4990   36.0522   24.7980 C   0  0  0  0  0  0  0  0  0  0  0  0
    8.5194   35.4704   25.5966 C   0  0  0  0  0  0  0  0  0  0  0  0
    7.1715   35.5443   25.2261 C   0  0  0  0  0  0  0  0  0  0  0  0
  1  2  2  0  0  0
  1  6  1  0  0  0
  2 11  1  0  0  0
  2  3  1  0  0  0
  3  4  2  0  0  0
  3  9  1  0  0  0
  4  5  1  0  0  0
  5  6  2  0  0  0
  5 22  1  0  0  0
  7  8  1  0  0  0
  8  1  1  0  0  0
  9 10  1  0  0  0
 11 12  1  0  0  0
 12 13  1  0  0  0
 12 17  1  0  0  0
 13 14  1  0  0  0
 13 18  1  0  0  0
 14 15  1  0  0  0
 15 16  1  0  0  0
 16 17  1  0  0  0
 18 19  2  0  0  0
 18 20  1  0  0  0
 20 21  1  0  0  0
 22 23  1  0  0  0
 23 24  1  0  0  0
 24 25  2  0  0  0
 24 29  1  0  0  0
 25 26  1  0  0  0
 25 30  1  0  0  0
 26 27  2  0  0  0
 26 31  1  0  0  0
 27 28  1  0  0  0
 28 29  2  0  0  0
 31 32  2  0  0  0
 31 36  1  0  0  0
 32 33  1  0  0  0
 33 34  2  0  0  0
 34 35  1  0  0  0
 35 36  2  0  0  0
M  END
> <minimizedAffinity>
-9.33779

$$$$
