1--10


 37 40  0  0  0  0  0  0  0  0999 V2000
    1.3480   37.2658   24.5836 C   0  0  0  0  0  0  0  0  0  0  0  0
    1.0886   37.6511   23.2484 C   0  0  0  0  0  0  0  0  0  0  0  0
    2.0761   37.3855   22.2647 C   0  0  0  0  0  0  0  0  0  0  0  0
    3.2862   36.7851   22.6309 C   0  0  0  0  0  0  0  0  0  0  0  0
    3.5443   36.4720   23.9579 C   0  0  0  0  0  0  0  0  0  0  0  0
    2.5573   36.6640   24.9158 C   0  0  0  0  0  0  0  0  0  0  0  0
    0.8933   38.5031   26.5578 C   0  0  0  0  0  0  0  0  0  0  0  0
    0.4478   37.5704   25.5742 O   0  0  0  0  0  0  0  0  0  0  0  0
    1.9777   37.5679   20.9056 O   0  0  0  0  0  0  0  0  0  0  0  0
    2.7964   36.8019   20.0314 C   0  0  0  0  0  0  0  0  0  0  0  0
    4.7983   36.0130   24.2528 O   0  0  0  0  0  0  0  0  0  0  0  0
    5.7980   36.4927   23.3431 C   0  0  0  0  0  0  0  0  0  0  0  0
    7.1884   36.3402   23.8968 C   0  0  0  0  0  0  0  0  0  0  0  0
    8.3052   36.8896   23.2126 C   0  0  0  0  0  0  0  0  0  0  0  0
    9.5841   36.8684   23.8348 C   0  0  0  0  0  0  0  0  0  0  0  0
    9.7167   36.1099   25.0187 C   0  0  0  0  0  0  0  0  0  0  0  0
    8.6444   35.4445   25.6028 C   0  0  0  0  0  0  0  0  0  0  0  0
    7.3793   35.5807   25.0589 C   0  0  0  0  0  0  0  0  0  0  0  0
    8.1080   37.4720   21.8260 C   0  0  0  0  0  0  0  0  0  0  0  0
   10.7487   37.6313   23.3225 C   0  0  0  0  0  0  0  0  0  0  0  0
   10.8013   39.0367   23.3843 C   0  0  0  0  0  0  0  0  0  0  0  0
   11.8901   39.7610   22.9010 C   0  0  0  0  0  0  0  0  0  0  0  0
   12.9954   39.0871   22.4095 C   0  0  0  0  0  0  0  0  0  0  0  0
   13.0052   37.6945   22.3804 C   0  0  0  0  0  0  0  0  0  0  0  0
   11.8901   36.9770   22.8170 C   0  0  0  0  0  0  0  0  0  0  0  0
   -0.2051   38.2916   22.8289 C   0  0  0  0  0  0  0  0  0  0  0  0
   -0.1477   39.4777   21.9876 N   0  0  0  0  0  0  0  0  0  0  0  0
    0.6984   39.4293   21.4180 H   0  0  0  0  0  0  0  0  0  0  0  0
   -1.3442   39.5220   21.1566 C   0  0  0  0  0  0  0  0  0  0  0  0
   -1.6022   38.1573   20.5112 C   0  0  0  0  0  0  0  0  0  0  0  0
   -2.0436   38.2779   19.1126 N   0  0  0  0  0  0  0  0  0  0  0  0
   -1.1540   39.1321   18.2950 C   0  0  0  0  0  0  0  0  0  0  0  0
    0.2276   38.5182   17.9702 C   0  0  0  0  0  0  0  0  0  0  0  0
    0.1768   37.1661   17.3819 N   0  0  0  0  0  0  0  0  0  0  0  0
   -0.7315   36.3083   18.1695 C   0  0  0  0  0  0  0  0  0  0  0  0
   -2.1095   36.9343   18.4925 C   0  0  0  0  0  0  0  0  0  0  0  0
   -0.2316   37.2183   15.9792 C   0  0  0  0  0  0  0  0  0  0  0  0
  1  2  2  0  0  0
  1  6  1  0  0  0
  2  3  1  0  0  0
  2 26  1  0  0  0
  3  4  2  0  0  0
  3  9  1  0  0  0
  4  5  1  0  0  0
  5  6  2  0  0  0
  5 11  1  0  0  0
  7  8  1  0  0  0
  8  1  1  0  0  0
  9 10  1  0  0  0
 11 12  1  0  0  0
 12 13  1  0  0  0
 13 14  2  0  0  0
 13 18  1  0  0  0
 14 15  1  0  0  0
 14 19  1  0  0  0
 15 16  2  0  0  0
 15 20  1  0  0  0
 16 17  1  0  0  0
 17 18  2  0  0  0
 20 21  2  0  0  0
 20 25  1  0  0  0
 21 22  1  0  0  0
 22 23  2  0  0  0
 23 24  1  0  0  0
 24 25  2  0  0  0
 26 27  1  0  0  0
 27 29  1  0  0  0
 27 28  1  0  0  0
 29 30  1  0  0  0
 30 31  1  0  0  0
 31 32  1  0  0  0
 31 36  1  0  0  0
 32 33  1  0  0  0
 33 34  1  0  0  0
 34 35  1  0  0  0
 34 37  1  0  0  0
 35 36  1  0  0  0
M  END
> <minimizedAffinity>
-10.58305

$$$$
