1--3


 29 31  0  0  0  0  0  0  0  0999 V2000
    4.5356   36.5424   23.3810 O   0  0  0  0  0  0  0  0  0  0  0  0
    1.9437   37.0158   24.5212 C   0  0  0  0  0  0  0  0  0  0  0  0
    2.1997   36.9414   23.0444 C   0  0  0  0  0  0  0  0  0  0  0  0
    1.1043   36.9964   22.1583 C   0  0  0  0  0  0  0  0  0  0  0  0
    1.2814   36.9318   20.7682 C   0  0  0  0  0  0  0  0  0  0  0  0
    2.5742   36.9038   20.2541 C   0  0  0  0  0  0  0  0  0  0  0  0
    3.6614   36.8607   21.1186 C   0  0  0  0  0  0  0  0  0  0  0  0
    3.4866   36.7949   22.5085 C   0  0  0  0  0  0  0  0  0  0  0  0
    0.0982   36.8851   19.8372 C   0  0  0  0  0  0  0  0  0  0  0  0
    0.4398   36.1661   18.6133 N   0  0  0  0  0  0  0  0  0  0  0  0
   -0.1160   35.3107   18.6006 H   0  0  0  0  0  0  0  0  0  0  0  0
    0.1020   36.9735   17.4359 C   0  0  0  0  0  0  0  0  0  0  0  0
    0.1593   38.4641   17.7833 C   0  0  0  0  0  0  0  0  0  0  0  0
    1.3066   39.0673   17.1900 O   0  0  0  0  0  0  0  0  0  0  0  0
    2.0705   38.7128   17.6786 H   0  0  0  0  0  0  0  0  0  0  0  0
    5.8023   36.5378   22.6891 C   0  0  0  0  0  0  0  0  0  0  0  0
    7.0645   36.3453   23.5090 C   0  0  0  0  0  0  0  0  0  0  0  0
    8.3094   36.8713   23.0229 C   0  0  0  0  0  0  0  0  0  0  0  0
    9.4869   36.7889   23.8219 C   0  0  0  0  0  0  0  0  0  0  0  0
    9.3834   36.0754   25.0355 C   0  0  0  0  0  0  0  0  0  0  0  0
    8.1820   35.5120   25.4754 C   0  0  0  0  0  0  0  0  0  0  0  0
    7.0217   35.6681   24.7293 C   0  0  0  0  0  0  0  0  0  0  0  0
    8.3477   37.5268   21.6547 C   0  0  0  0  0  0  0  0  0  0  0  0
   10.8015   37.4130   23.4615 C   0  0  0  0  0  0  0  0  0  0  0  0
   11.0124   38.8040   23.5025 C   0  0  0  0  0  0  0  0  0  0  0  0
   12.2376   39.3846   23.1492 C   0  0  0  0  0  0  0  0  0  0  0  0
   13.3150   38.5792   22.8072 C   0  0  0  0  0  0  0  0  0  0  0  0
   13.1594   37.1978   22.8039 C   0  0  0  0  0  0  0  0  0  0  0  0
   11.9148   36.6265   23.1089 C   0  0  0  0  0  0  0  0  0  0  0  0
  1 16  1  0  0  0
  2  3  1  0  0  0
  3  4  2  0  0  0
  3  8  1  0  0  0
  4  5  1  0  0  0
  5  6  2  0  0  0
  5  9  1  0  0  0
  6  7  1  0  0  0
  7  8  2  0  0  0
  8  1  1  0  0  0
  9 10  1  0  0  0
 10 12  1  0  0  0
 10 11  1  0  0  0
 12 13  1  0  0  0
 13 14  1  0  0  0
 14 15  1  0  0  0
 16 17  1  0  0  0
 17 18  2  0  0  0
 17 22  1  0  0  0
 18 19  1  0  0  0
 18 23  1  0  0  0
 19 20  2  0  0  0
 19 24  1  0  0  0
 20 21  1  0  0  0
 21 22  2  0  0  0
 24 25  2  0  0  0
 24 29  1  0  0  0
 25 26  1  0  0  0
 26 27  2  0  0  0
 27 28  1  0  0  0
 28 29  2  0  0  0
M  END
> <minimizedAffinity>
-11.13620

$$$$
