1--4


 28 31  0  0  0  0  0  0  0  0999 V2000
    5.1802   36.4666   23.5500 C   0  0  0  0  0  0  0  0  0  0  0  0
    4.8186   36.6780   22.1758 C   0  0  0  0  0  0  0  0  0  0  0  0
    3.4592   36.9342   21.8144 C   0  0  0  0  0  0  0  0  0  0  0  0
    2.4644   36.8853   22.8028 C   0  0  0  0  0  0  0  0  0  0  0  0
    2.7913   36.6227   24.1250 C   0  0  0  0  0  0  0  0  0  0  0  0
    4.1248   36.4374   24.4903 C   0  0  0  0  0  0  0  0  0  0  0  0
    5.8405   36.6541   21.0596 C   0  0  0  0  0  0  0  0  0  0  0  0
    9.0008   36.7686   23.9632 C   0  0  0  0  0  0  0  0  0  0  0  0
    7.6908   36.9461   23.4863 C   0  0  0  0  0  0  0  0  0  0  0  0
    6.5837   36.2699   24.0518 C   0  0  0  0  0  0  0  0  0  0  0  0
    6.8831   35.3734   25.0934 C   0  0  0  0  0  0  0  0  0  0  0  0
    8.1649   35.2729   25.6439 C   0  0  0  0  0  0  0  0  0  0  0  0
    9.2214   35.9809   25.0882 C   0  0  0  0  0  0  0  0  0  0  0  0
    9.5615   38.6122   22.6102 C   0  0  0  0  0  0  0  0  0  0  0  0
    9.9940   37.4302   23.2886 O   0  0  0  0  0  0  0  0  0  0  0  0
    3.0122   37.2138   20.3809 C   0  0  0  0  0  0  0  0  0  0  0  0
    1.5925   37.3597   20.3192 O   0  0  0  0  0  0  0  0  0  0  0  0
    0.9533   36.8322   19.2300 C   0  0  0  0  0  0  0  0  0  0  0  0
   -0.3754   36.4223   19.1542 C   0  0  0  0  0  0  0  0  0  0  0  0
   -0.9033   35.9358   17.9482 C   0  0  0  0  0  0  0  0  0  0  0  0
   -0.1063   35.8562   16.7946 C   0  0  0  0  0  0  0  0  0  0  0  0
    1.2374   36.2351   16.8869 C   0  0  0  0  0  0  0  0  0  0  0  0
    1.7599   36.7179   18.0900 C   0  0  0  0  0  0  0  0  0  0  0  0
   -0.6780   35.3992   15.4656 C   0  0  0  0  0  0  0  0  0  0  0  0
   -1.5100   34.1949   15.5874 N   0  0  0  0  0  0  0  0  0  0  0  0
   -1.9610   33.7046   14.2521 C   0  0  0  0  0  0  0  0  0  0  0  0
   -1.7275   32.2798   14.7926 C   0  0  0  0  0  0  0  0  0  0  0  0
   -0.6671   32.9659   15.6810 C   0  0  0  0  0  0  0  0  0  0  0  0
  1  2  2  0  0  0
  1  6  1  0  0  0
  2  3  1  0  0  0
  2  7  1  0  0  0
  3  4  2  0  0  0
  3 16  1  0  0  0
  4  5  1  0  0  0
  5  6  2  0  0  0
  8  9  2  0  0  0
  8 13  1  0  0  0
  9 10  1  0  0  0
 10 11  2  0  0  0
 10  1  1  0  0  0
 11 12  1  0  0  0
 12 13  2  0  0  0
 14 15  1  0  0  0
 15  8  1  0  0  0
 16 17  1  0  0  0
 17 18  1  0  0  0
 18 19  2  0  0  0
 18 23  1  0  0  0
 19 20  1  0  0  0
 20 21  2  0  0  0
 21 24  1  0  0  0
 21 22  1  0  0  0
 22 23  2  0  0  0
 24 25  1  0  0  0
 25 26  1  0  0  0
 25 28  1  0  0  0
 26 27  1  0  0  0
 27 28  1  0  0  0
M  END
> <minimizedAffinity>
-9.47510

$$$$
