1--5


 36 38  0  0  0  0  0  0  0  0999 V2000
    0.9233   36.9385   21.0036 C   0  0  0  0  0  0  0  0  0  0  0  0
    0.9814   37.0965   22.4336 C   0  0  0  0  0  0  0  0  0  0  0  0
    2.2279   37.0741   23.0943 C   0  0  0  0  0  0  0  0  0  0  0  0
    3.4073   37.1449   22.3331 C   0  0  0  0  0  0  0  0  0  0  0  0
    3.3462   36.9807   20.9496 C   0  0  0  0  0  0  0  0  0  0  0  0
    2.1262   36.8351   20.2772 C   0  0  0  0  0  0  0  0  0  0  0  0
    2.4013   36.6265   24.9555 Br  0  0  0  0  0  0  0  0  0  0  0  0
    2.3228   36.4820   18.9694 O   0  0  0  0  0  0  0  0  0  0  0  0
    2.1658   37.4208   17.9203 C   0  0  0  0  0  0  0  0  0  0  0  0
   -0.2583   37.2678   23.0009 O   0  0  0  0  0  0  0  0  0  0  0  0
   -0.6704   38.4565   23.6512 C   0  0  0  0  0  0  0  0  0  0  0  0
   -0.4381   36.7502   20.3531 C   0  0  0  0  0  0  0  0  0  0  0  0
   -0.4778   35.7147   19.3139 N   0  0  0  0  0  0  0  0  0  0  0  0
    0.4754   35.4868   19.0339 H   0  0  0  0  0  0  0  0  0  0  0  0
   -1.2563   36.0747   18.1238 C   0  0  0  0  0  0  0  0  0  0  0  0
   -1.3242   34.9773   17.0534 C   0  0  0  0  0  0  0  0  0  0  0  0
    0.1349   33.2709   16.0479 C   0  0  0  0  0  0  0  0  0  0  0  0
    1.5752   32.9063   15.7921 C   0  0  0  0  0  0  0  0  0  0  0  0
   -0.7968   32.5520   15.7232 O   0  0  0  0  0  0  0  0  0  0  0  0
   -0.0172   34.4775   16.6847 N   0  0  0  0  0  0  0  0  0  0  0  0
    0.7854   35.0805   16.8141 H   0  0  0  0  0  0  0  0  0  0  0  0
    4.6813   37.3054   22.8315 O   0  0  0  0  0  0  0  0  0  0  0  0
    5.5780   36.2487   22.4625 C   0  0  0  0  0  0  0  0  0  0  0  0
    6.8534   36.2790   23.2668 C   0  0  0  0  0  0  0  0  0  0  0  0
    8.0619   36.8262   22.7549 C   0  0  0  0  0  0  0  0  0  0  0  0
    9.2253   36.8369   23.5717 C   0  0  0  0  0  0  0  0  0  0  0  0
    9.1598   36.1464   24.8049 C   0  0  0  0  0  0  0  0  0  0  0  0
    7.9976   35.5214   25.2524 C   0  0  0  0  0  0  0  0  0  0  0  0
    6.8406   35.6182   24.5036 C   0  0  0  0  0  0  0  0  0  0  0  0
    8.0853   37.3640   21.3377 C   0  0  0  0  0  0  0  0  0  0  0  0
   10.4918   37.5333   23.2061 C   0  0  0  0  0  0  0  0  0  0  0  0
   10.6741   38.9102   23.4341 C   0  0  0  0  0  0  0  0  0  0  0  0
   11.8557   39.5686   23.0829 C   0  0  0  0  0  0  0  0  0  0  0  0
   12.9193   38.8476   22.5555 C   0  0  0  0  0  0  0  0  0  0  0  0
   12.7905   37.4768   22.3614 C   0  0  0  0  0  0  0  0  0  0  0  0
   11.5858   36.8332   22.6645 C   0  0  0  0  0  0  0  0  0  0  0  0
  1  2  2  0  0  0
  1  6  1  0  0  0
  2  3  1  0  0  0
  2 10  1  0  0  0
  3  4  2  0  0  0
  3  7  1  0  0  0
  4  5  1  0  0  0
  4 22  1  0  0  0
  5  6  2  0  0  0
  6  8  1  0  0  0
  8  9  1  0  0  0
 10 11  1  0  0  0
 12  1  1  0  0  0
 13 12  1  0  0  0
 13 14  1  0  0  0
 15 13  1  0  0  0
 16 15  1  0  0  0
 17 18  1  0  0  0
 17 19  2  0  0  0
 17 20  1  0  0  0
 20 16  1  0  0  0
 20 21  1  0  0  0
 22 23  1  0  0  0
 23 24  1  0  0  0
 24 25  2  0  0  0
 24 29  1  0  0  0
 25 26  1  0  0  0
 25 30  1  0  0  0
 26 27  2  0  0  0
 26 31  1  0  0  0
 27 28  1  0  0  0
 28 29  2  0  0  0
 31 32  2  0  0  0
 31 36  1  0  0  0
 32 33  1  0  0  0
 33 34  2  0  0  0
 34 35  1  0  0  0
 35 36  2  0  0  0
M  END
> <minimizedAffinity>
-10.89169

$$$$
