1--6


 39 42  0  0  0  0  0  0  0  0999 V2000
    1.9729   37.3381   21.9099 C   0  0  0  0  0  0  0  0  0  0  0  0
    0.9543   37.5919   22.8644 C   0  0  0  0  0  0  0  0  0  0  0  0
    1.2739   37.4236   24.2310 C   0  0  0  0  0  0  0  0  0  0  0  0
    2.5179   36.9067   24.6103 C   0  0  0  0  0  0  0  0  0  0  0  0
    3.4652   36.5469   23.6531 C   0  0  0  0  0  0  0  0  0  0  0  0
    3.2053   36.8010   22.3117 C   0  0  0  0  0  0  0  0  0  0  0  0
    2.4092   36.8264   19.6150 C   0  0  0  0  0  0  0  0  0  0  0  0
    1.6769   37.5606   20.5883 O   0  0  0  0  0  0  0  0  0  0  0  0
    0.4053   37.5642   25.2885 O   0  0  0  0  0  0  0  0  0  0  0  0
    0.6990   38.5759   26.2468 C   0  0  0  0  0  0  0  0  0  0  0  0
    4.6542   35.9184   23.9224 O   0  0  0  0  0  0  0  0  0  0  0  0
    5.7430   36.3898   23.1176 C   0  0  0  0  0  0  0  0  0  0  0  0
    7.1216   36.2670   23.7770 C   0  0  0  0  0  0  0  0  0  0  0  0
    8.2667   36.8512   23.1504 C   0  0  0  0  0  0  0  0  0  0  0  0
    9.5463   36.8132   23.7933 C   0  0  0  0  0  0  0  0  0  0  0  0
    9.6131   36.0908   25.0088 C   0  0  0  0  0  0  0  0  0  0  0  0
    8.4919   35.5226   25.6173 C   0  0  0  0  0  0  0  0  0  0  0  0
    7.2493   35.6288   25.0143 C   0  0  0  0  0  0  0  0  0  0  0  0
    8.0904   37.4728   21.7803 C   0  0  0  0  0  0  0  0  0  0  0  0
   10.7748   37.5654   23.3422 C   0  0  0  0  0  0  0  0  0  0  0  0
   11.9696   36.8678   23.0465 C   0  0  0  0  0  0  0  0  0  0  0  0
   13.1678   37.5204   22.7268 C   0  0  0  0  0  0  0  0  0  0  0  0
   13.2248   38.9057   22.7275 C   0  0  0  0  0  0  0  0  0  0  0  0
   12.0676   39.6285   22.9782 C   0  0  0  0  0  0  0  0  0  0  0  0
   10.8582   38.9644   23.2341 C   0  0  0  0  0  0  0  0  0  0  0  0
   -0.4486   38.0449   22.4987 C   0  0  0  0  0  0  0  0  0  0  0  0
   -0.5590   39.2022   21.6284 N   0  0  0  0  0  0  0  0  0  0  0  0
    0.3716   39.4118   21.2712 H   0  0  0  0  0  0  0  0  0  0  0  0
   -1.5294   39.0860   20.5261 C   0  0  0  0  0  0  0  0  0  0  0  0
   -2.4893   37.9078   20.7620 C   0  0  0  0  0  0  0  0  0  0  0  0
   -2.3759   40.3763   20.6891 C   0  0  0  0  0  0  0  0  0  0  0  0
   -0.9410   39.1125   19.0520 C   0  0  0  0  0  0  0  0  0  0  0  0
   -1.4381   38.2435   17.9511 N   0  0  0  0  0  0  0  0  0  0  0  0
   -2.2247   38.9091   16.8998 C   0  0  0  0  0  0  0  0  0  0  0  0
   -1.4627   39.9180   16.0090 C   0  0  0  0  0  0  0  0  0  0  0  0
   -0.1247   39.5266   15.5327 N   0  0  0  0  0  0  0  0  0  0  0  0
    0.5825   38.6033   16.4357 C   0  0  0  0  0  0  0  0  0  0  0  0
   -0.2911   37.6131   17.2478 C   0  0  0  0  0  0  0  0  0  0  0  0
   -0.1234   39.0688   14.1502 C   0  0  0  0  0  0  0  0  0  0  0  0
  1  2  2  0  0  0
  1  6  1  0  0  0
  2  3  1  0  0  0
  2 26  1  0  0  0
  3  4  2  0  0  0
  3  9  1  0  0  0
  4  5  1  0  0  0
  5  6  2  0  0  0
  5 11  1  0  0  0
  7  8  1  0  0  0
  8  1  1  0  0  0
  9 10  1  0  0  0
 11 12  1  0  0  0
 12 13  1  0  0  0
 13 14  2  0  0  0
 13 18  1  0  0  0
 14 15  1  0  0  0
 14 19  1  0  0  0
 15 16  2  0  0  0
 15 20  1  0  0  0
 16 17  1  0  0  0
 17 18  2  0  0  0
 20 21  2  0  0  0
 20 25  1  0  0  0
 21 22  1  0  0  0
 22 23  2  0  0  0
 23 24  1  0  0  0
 24 25  2  0  0  0
 26 27  1  0  0  0
 27 29  1  0  0  0
 27 28  1  0  0  0
 29 32  1  0  0  0
 29 30  1  0  0  0
 29 31  1  0  0  0
 32 33  1  0  0  0
 33 34  1  0  0  0
 33 38  1  0  0  0
 34 35  1  0  0  0
 35 36  1  0  0  0
 36 37  1  0  0  0
 36 39  1  0  0  0
 37 38  1  0  0  0
M  END
> <minimizedAffinity>
-10.79909

$$$$
