1--7


 36 38  0  0  0  0  0  0  0  0999 V2000
    1.6603   37.5403   22.3736 C   0  0  0  0  0  0  0  0  0  0  0  0
    0.8851   37.7300   23.5379 C   0  0  0  0  0  0  0  0  0  0  0  0
    1.4275   37.3656   24.7903 C   0  0  0  0  0  0  0  0  0  0  0  0
    2.7065   36.8054   24.8558 C   0  0  0  0  0  0  0  0  0  0  0  0
    3.4435   36.5780   23.6951 C   0  0  0  0  0  0  0  0  0  0  0  0
    2.9241   36.9570   22.4614 C   0  0  0  0  0  0  0  0  0  0  0  0
    0.8726   36.8090   20.2505 C   0  0  0  0  0  0  0  0  0  0  0  0
    1.0851   37.8774   21.1716 O   0  0  0  0  0  0  0  0  0  0  0  0
    0.6331   37.5848   25.8875 O   0  0  0  0  0  0  0  0  0  0  0  0
    1.1506   38.4003   26.9300 C   0  0  0  0  0  0  0  0  0  0  0  0
    4.6780   36.0175   23.8763 O   0  0  0  0  0  0  0  0  0  0  0  0
    5.6870   36.4087   22.9410 C   0  0  0  0  0  0  0  0  0  0  0  0
    7.0365   36.2920   23.6163 C   0  0  0  0  0  0  0  0  0  0  0  0
    8.2207   36.8443   23.0448 C   0  0  0  0  0  0  0  0  0  0  0  0
    9.4389   36.8334   23.7848 C   0  0  0  0  0  0  0  0  0  0  0  0
    9.4424   36.1257   25.0088 C   0  0  0  0  0  0  0  0  0  0  0  0
    8.3012   35.5057   25.5193 C   0  0  0  0  0  0  0  0  0  0  0  0
    7.0980   35.6163   24.8408 C   0  0  0  0  0  0  0  0  0  0  0  0
    8.1464   37.4485   21.6585 C   0  0  0  0  0  0  0  0  0  0  0  0
   10.6854   37.5388   23.3644 C   0  0  0  0  0  0  0  0  0  0  0  0
   10.8159   38.9379   23.4513 C   0  0  0  0  0  0  0  0  0  0  0  0
   11.9770   39.6014   23.0434 C   0  0  0  0  0  0  0  0  0  0  0  0
   13.0720   38.8721   22.5969 C   0  0  0  0  0  0  0  0  0  0  0  0
   12.9984   37.4850   22.5473 C   0  0  0  0  0  0  0  0  0  0  0  0
   11.8148   36.8296   22.9089 C   0  0  0  0  0  0  0  0  0  0  0  0
   -0.5082   38.3247   23.4395 C   0  0  0  0  0  0  0  0  0  0  0  0
   -1.5226   37.3926   22.9173 N   0  0  0  0  0  0  0  0  0  0  0  0
   -1.6179   36.6381   23.5999 H   0  0  0  0  0  0  0  0  0  0  0  0
   -2.8151   38.0593   22.7159 C   0  0  0  0  0  0  0  0  0  0  0  0
   -2.7176   39.5666   22.9726 C   0  0  0  0  0  0  0  0  0  0  0  0
   -3.0643   40.4177   21.7813 N   0  0  0  0  0  0  0  0  0  0  0  0
   -3.7282   39.5812   20.7430 C   0  0  0  0  0  0  0  0  0  0  0  0
   -1.8323   41.4039   21.1310 S   0  0  0  0  0  0  0  0  0  0  0  0
   -2.4430   42.5208   20.4429 O   0  0  0  0  0  0  0  0  0  0  0  0
   -0.8458   41.6243   22.1716 O   0  0  0  0  0  0  0  0  0  0  0  0
   -1.0463   40.3387   19.9305 C   0  0  0  0  0  0  0  0  0  0  0  0
  1  2  2  0  0  0
  1  6  1  0  0  0
  2  3  1  0  0  0
  2 26  1  0  0  0
  3  4  2  0  0  0
  3  9  1  0  0  0
  4  5  1  0  0  0
  5  6  2  0  0  0
  5 11  1  0  0  0
  7  8  1  0  0  0
  8  1  1  0  0  0
  9 10  1  0  0  0
 11 12  1  0  0  0
 12 13  1  0  0  0
 13 14  2  0  0  0
 13 18  1  0  0  0
 14 15  1  0  0  0
 14 19  1  0  0  0
 15 16  2  0  0  0
 15 20  1  0  0  0
 16 17  1  0  0  0
 17 18  2  0  0  0
 20 21  2  0  0  0
 20 25  1  0  0  0
 21 22  1  0  0  0
 22 23  2  0  0  0
 23 24  1  0  0  0
 24 25  2  0  0  0
 26 27  1  0  0  0
 27 29  1  0  0  0
 27 28  1  0  0  0
 29 30  1  0  0  0
 30 31  1  0  0  0
 31 33  1  0  0  0
 31 32  1  0  0  0
 33 34  2  0  0  0
 33 35  2  0  0  0
 33 36  1  0  0  0
M  END
> <minimizedAffinity>
-10.53383

$$$$
