1--9


 37 40  0  0  0  0  0  0  0  0999 V2000
   -1.4837   38.8742   26.3315 C   0  0  0  0  0  0  0  0  0  0  0  0
   -2.8125   38.9528   25.8508 C   0  0  0  0  0  0  0  0  0  0  0  0
   -3.0558   38.6967   24.4865 C   0  0  0  0  0  0  0  0  0  0  0  0
   -1.9949   38.3916   23.6348 C   0  0  0  0  0  0  0  0  0  0  0  0
   -0.6828   38.3645   24.1058 C   0  0  0  0  0  0  0  0  0  0  0  0
   -0.4338   38.5619   25.4582 C   0  0  0  0  0  0  0  0  0  0  0  0
   -0.4405   40.1980   28.0008 C   0  0  0  0  0  0  0  0  0  0  0  0
   -1.2934   39.1030   27.6732 O   0  0  0  0  0  0  0  0  0  0  0  0
   -4.3433   38.8379   24.0335 O   0  0  0  0  0  0  0  0  0  0  0  0
   -4.6612   40.0666   23.3859 C   0  0  0  0  0  0  0  0  0  0  0  0
    0.4211   38.1817   23.3064 O   0  0  0  0  0  0  0  0  0  0  0  0
    1.2324   37.0699   23.7057 C   0  0  0  0  0  0  0  0  0  0  0  0
    2.5438   36.9357   22.9599 C   0  0  0  0  0  0  0  0  0  0  0  0
    3.7665   36.7966   23.6913 C   0  0  0  0  0  0  0  0  0  0  0  0
    4.9893   36.5523   22.9990 C   0  0  0  0  0  0  0  0  0  0  0  0
    4.9304   36.5597   21.5867 C   0  0  0  0  0  0  0  0  0  0  0  0
    3.7489   36.7821   20.8781 C   0  0  0  0  0  0  0  0  0  0  0  0
    2.5579   36.9542   21.5628 C   0  0  0  0  0  0  0  0  0  0  0  0
    3.7207   36.8988   25.2022 C   0  0  0  0  0  0  0  0  0  0  0  0
    6.3118   36.3118   23.6603 C   0  0  0  0  0  0  0  0  0  0  0  0
    7.5086   36.9090   23.2223 C   0  0  0  0  0  0  0  0  0  0  0  0
    8.7444   36.6280   23.8195 C   0  0  0  0  0  0  0  0  0  0  0  0
    8.8082   35.7938   24.9283 C   0  0  0  0  0  0  0  0  0  0  0  0
    7.6391   35.2406   25.4330 C   0  0  0  0  0  0  0  0  0  0  0  0
    6.4148   35.4827   24.7963 C   0  0  0  0  0  0  0  0  0  0  0  0
   -3.9716   39.2677   26.7779 C   0  0  0  0  0  0  0  0  0  0  0  0
   -4.1193   38.3729   27.9293 N   0  0  0  0  0  0  0  0  0  0  0  0
   -4.7268   38.8149   28.6216 H   0  0  0  0  0  0  0  0  0  0  0  0
   -4.6659   37.0576   27.5752 C   0  0  0  0  0  0  0  0  0  0  0  0
   -3.9446   35.9369   28.3462 C   0  0  0  0  0  0  0  0  0  0  0  0
   -2.7915   35.5845   28.0747 O   0  0  0  0  0  0  0  0  0  0  0  0
   -4.6566   35.3376   29.3762 N   0  0  0  0  0  0  0  0  0  0  0  0
   -5.9770   35.7485   29.8615 C   0  0  0  0  0  0  0  0  0  0  0  0
   -6.8834   34.5248   30.0224 C   0  0  0  0  0  0  0  0  0  0  0  0
   -6.2764   33.5427   30.8763 O   0  0  0  0  0  0  0  0  0  0  0  0
   -5.0213   33.0994   30.3305 C   0  0  0  0  0  0  0  0  0  0  0  0
   -4.0450   34.2684   30.1642 C   0  0  0  0  0  0  0  0  0  0  0  0
  1  2  2  0  0  0
  1  6  1  0  0  0
  2  3  1  0  0  0
  2 26  1  0  0  0
  3  4  2  0  0  0
  3  9  1  0  0  0
  4  5  1  0  0  0
  5  6  2  0  0  0
  5 11  1  0  0  0
  7  8  1  0  0  0
  8  1  1  0  0  0
  9 10  1  0  0  0
 11 12  1  0  0  0
 12 13  1  0  0  0
 13 14  2  0  0  0
 13 18  1  0  0  0
 14 15  1  0  0  0
 14 19  1  0  0  0
 15 16  2  0  0  0
 15 20  1  0  0  0
 16 17  1  0  0  0
 17 18  2  0  0  0
 20 21  2  0  0  0
 20 25  1  0  0  0
 21 22  1  0  0  0
 22 23  2  0  0  0
 23 24  1  0  0  0
 24 25  2  0  0  0
 26 27  1  0  0  0
 27 29  1  0  0  0
 27 28  1  0  0  0
 29 30  1  0  0  0
 30 31  2  0  0  0
 30 32  1  0  0  0
 32 33  1  0  0  0
 32 37  1  0  0  0
 33 34  1  0  0  0
 34 35  1  0  0  0
 35 36  1  0  0  0
 36 37  1  0  0  0
M  END
> <minimizedAffinity>
-8.63147

$$$$
